[root]
type=Root
children=system
eventq_index=0
full_system=true
sim_quantum=0
time_sync_enable=false
time_sync_period=100000000000
time_sync_spin_threshold=100000000

[system]
type=LinuxArmSystem
children=bootmem clk_domain cpu_cluster dvfs_handler intrctrl iobridge iobus iocache mem_ctrls membus pci_devices realview terminal vncserver voltage_domain
atags_addr=134217728
auto_reset_addr=false
boot_loader=/home/ubuntu/parsec3/binaries/boot_emm.arm64 /home/ubuntu/parsec3/binaries/boot_emm.arm
boot_osflags=console=ttyAMA0 lpj=19988480 norandmaps root=/dev/vda1 rw mem=2GB
cache_line_size=64
clk_domain=system.clk_domain
default_p_state=UNDEFINED
dtb_filename=/home/ubuntu/parsec3/binaries/armv8_gem5_v1_2cpu.20170616.dtb
early_kernel_symbols=false
enable_context_switch_stats_dump=false
eventq_index=0
exit_on_work_items=false
flags_addr=469827632
gic_cpu_addr=738205696
have_crypto=false
have_large_asid_64=false
have_lpae=true
have_security=false
have_virtualization=false
highest_el_is_64=false
init_param=0
kernel=/home/ubuntu/parsec3/binaries/vmlinux.vexpress_gem5_v1_64.20170616
kernel_addr_check=true
kernel_extras=
load_addr_mask=0
load_offset=2147483648
m5ops_base=268500992
machine_type=DTOnly
mem_mode=timing
mem_ranges=2147483648:4294967295:0:0:0:0
memories=system.bootmem system.mem_ctrls
mmap_using_noreserve=false
multi_proc=true
multi_thread=false
num_work_ids=16
p_state_clk_gate_bins=20
p_state_clk_gate_max=1000000000000
p_state_clk_gate_min=1000
panic_on_oops=false
panic_on_panic=false
phys_addr_range_64=40
power_model=
readfile=
reset_addr=0
semihosting=Null
symbolfile=
thermal_components=
thermal_model=Null
work_begin_ckpt_count=0
work_begin_cpu_id_exit=-1
work_begin_exit_count=0
work_cpus_ckpt_count=0
work_end_ckpt_count=0
work_end_exit_count=0
work_item_id=-1
system_port=system.membus.slave[2]

[system.bootmem]
type=SimpleMemory
bandwidth=73.000000
clk_domain=system.clk_domain
conf_table_reported=false
default_p_state=UNDEFINED
eventq_index=0
in_addr_map=true
kvm_map=true
latency=30000
latency_var=0
null=false
p_state_clk_gate_bins=20
p_state_clk_gate_max=1000000000000
p_state_clk_gate_min=1000
power_model=
range=0:67108863:0:0:0:0
port=system.membus.master[6]

[system.clk_domain]
type=SrcClockDomain
clock=1000
domain_id=-1
eventq_index=0
init_perf_level=0
voltage_domain=system.voltage_domain

[system.cpu_cluster]
type=SubSystem
children=clk_domain cpus0 cpus1 l2 toL2Bus voltage_domain
eventq_index=0
thermal_domain=Null

[system.cpu_cluster.clk_domain]
type=SrcClockDomain
clock=250
domain_id=-1
eventq_index=0
init_perf_level=0
voltage_domain=system.cpu_cluster.voltage_domain

[system.cpu_cluster.cpus0]
type=MinorCPU
children=branchPred dcache dstage2_mmu dtb dtb_walker_cache executeFuncUnits icache interrupts isa istage2_mmu itb itb_walker_cache tracer
branchPred=system.cpu_cluster.cpus0.branchPred
checker=Null
clk_domain=system.cpu_cluster.clk_domain
cpu_id=0
decodeCycleInput=true
decodeInputBufferSize=3
decodeInputWidth=2
decodeToExecuteForwardDelay=1
default_p_state=UNDEFINED
do_checkpoint_insts=true
do_quiesce=true
do_statistics_insts=true
dstage2_mmu=system.cpu_cluster.cpus0.dstage2_mmu
dtb=system.cpu_cluster.cpus0.dtb
enableIdling=true
eventq_index=0
executeAllowEarlyMemoryIssue=true
executeBranchDelay=1
executeCommitLimit=2
executeCycleInput=true
executeFuncUnits=system.cpu_cluster.cpus0.executeFuncUnits
executeInputBufferSize=7
executeInputWidth=2
executeIssueLimit=2
executeLSQMaxStoreBufferStoresPerCycle=2
executeLSQRequestsQueueSize=1
executeLSQStoreBufferSize=5
executeLSQTransfersQueueSize=2
executeMaxAccessesInMemory=2
executeMemoryCommitLimit=1
executeMemoryIssueLimit=1
executeMemoryWidth=0
executeSetTraceTimeOnCommit=true
executeSetTraceTimeOnIssue=false
fetch1FetchLimit=1
fetch1LineSnapWidth=0
fetch1LineWidth=0
fetch1ToFetch2BackwardDelay=1
fetch1ToFetch2ForwardDelay=1
fetch2CycleInput=true
fetch2InputBufferSize=2
fetch2ToDecodeForwardDelay=1
function_trace=false
function_trace_start=0
interrupts=system.cpu_cluster.cpus0.interrupts
isa=system.cpu_cluster.cpus0.isa
istage2_mmu=system.cpu_cluster.cpus0.istage2_mmu
itb=system.cpu_cluster.cpus0.itb
max_insts_all_threads=0
max_insts_any_thread=0
max_loads_all_threads=0
max_loads_any_thread=0
numThreads=1
p_state_clk_gate_bins=20
p_state_clk_gate_max=1000000000000
p_state_clk_gate_min=1000
power_gating_on_idle=false
power_model=
profile=0
progress_interval=0
pwr_gating_latency=300
simpoint_start_insts=
socket_id=0
switched_out=false
syscallRetryLatency=10000
system=system
threadPolicy=RoundRobin
tracer=system.cpu_cluster.cpus0.tracer
wait_for_remote_gdb=false
workload=
dcache_port=system.cpu_cluster.cpus0.dcache.cpu_side
icache_port=system.cpu_cluster.cpus0.icache.cpu_side

[system.cpu_cluster.cpus0.branchPred]
type=TournamentBP
BTBEntries=4096
BTBTagSize=16
RASSize=16
choiceCtrBits=2
choicePredictorSize=8192
eventq_index=0
globalCtrBits=2
globalPredictorSize=8192
indirectHashGHR=true
indirectHashTargets=true
indirectPathLength=3
indirectSets=256
indirectTagSize=16
indirectWays=2
instShiftAmt=2
localCtrBits=2
localHistoryTableSize=2048
localPredictorSize=2048
numThreads=1
useIndirect=true

[system.cpu_cluster.cpus0.dcache]
type=Cache
children=replacement_policy tags
addr_ranges=0:18446744073709551615:0:0:0:0
assoc=2
clk_domain=system.cpu_cluster.clk_domain
clusivity=mostly_incl
data_latency=2
default_p_state=UNDEFINED
demand_mshr_reserve=1
eventq_index=0
is_read_only=false
max_miss_count=0
mshrs=16
p_state_clk_gate_bins=20
p_state_clk_gate_max=1000000000000
p_state_clk_gate_min=1000
power_model=
prefetch_on_access=false
prefetcher=Null
replacement_policy=system.cpu_cluster.cpus0.dcache.replacement_policy
response_latency=1
sequential_access=false
size=32768
system=system
tag_latency=2
tags=system.cpu_cluster.cpus0.dcache.tags
tgts_per_mshr=16
warmup_percentage=0
write_allocator=Null
write_buffers=16
writeback_clean=false
cpu_side=system.cpu_cluster.cpus0.dcache_port
mem_side=system.cpu_cluster.toL2Bus.slave[1]

[system.cpu_cluster.cpus0.dcache.replacement_policy]
type=LRURP
eventq_index=0

[system.cpu_cluster.cpus0.dcache.tags]
type=BaseSetAssoc
children=indexing_policy
assoc=2
block_size=64
clk_domain=system.cpu_cluster.clk_domain
default_p_state=UNDEFINED
entry_size=64
eventq_index=0
indexing_policy=system.cpu_cluster.cpus0.dcache.tags.indexing_policy
p_state_clk_gate_bins=20
p_state_clk_gate_max=1000000000000
p_state_clk_gate_min=1000
power_model=
replacement_policy=system.cpu_cluster.cpus0.dcache.replacement_policy
sequential_access=false
size=32768
system=system
tag_latency=2
warmup_percentage=0

[system.cpu_cluster.cpus0.dcache.tags.indexing_policy]
type=SetAssociative
assoc=2
entry_size=64
eventq_index=0
size=32768

[system.cpu_cluster.cpus0.dstage2_mmu]
type=ArmStage2MMU
children=stage2_tlb
eventq_index=0
stage2_tlb=system.cpu_cluster.cpus0.dstage2_mmu.stage2_tlb
sys=system
tlb=system.cpu_cluster.cpus0.dtb

[system.cpu_cluster.cpus0.dstage2_mmu.stage2_tlb]
type=ArmTLB
children=walker
eventq_index=0
is_stage2=true
size=32
sys=system
walker=system.cpu_cluster.cpus0.dstage2_mmu.stage2_tlb.walker

[system.cpu_cluster.cpus0.dstage2_mmu.stage2_tlb.walker]
type=ArmTableWalker
clk_domain=system.cpu_cluster.clk_domain
default_p_state=UNDEFINED
eventq_index=0
is_stage2=true
num_squash_per_cycle=2
p_state_clk_gate_bins=20
p_state_clk_gate_max=1000000000000
p_state_clk_gate_min=1000
power_model=
sys=system

[system.cpu_cluster.cpus0.dtb]
type=ArmTLB
children=walker
eventq_index=0
is_stage2=false
size=64
sys=system
walker=system.cpu_cluster.cpus0.dtb.walker

[system.cpu_cluster.cpus0.dtb.walker]
type=ArmTableWalker
clk_domain=system.cpu_cluster.clk_domain
default_p_state=UNDEFINED
eventq_index=0
is_stage2=false
num_squash_per_cycle=2
p_state_clk_gate_bins=20
p_state_clk_gate_max=1000000000000
p_state_clk_gate_min=1000
power_model=
sys=system
port=system.cpu_cluster.cpus0.dtb_walker_cache.cpu_side

[system.cpu_cluster.cpus0.dtb_walker_cache]
type=Cache
children=replacement_policy tags
addr_ranges=0:18446744073709551615:0:0:0:0
assoc=8
clk_domain=system.cpu_cluster.clk_domain
clusivity=mostly_incl
data_latency=4
default_p_state=UNDEFINED
demand_mshr_reserve=1
eventq_index=0
is_read_only=true
max_miss_count=0
mshrs=6
p_state_clk_gate_bins=20
p_state_clk_gate_max=1000000000000
p_state_clk_gate_min=1000
power_model=
prefetch_on_access=false
prefetcher=Null
replacement_policy=system.cpu_cluster.cpus0.dtb_walker_cache.replacement_policy
response_latency=4
sequential_access=false
size=1024
system=system
tag_latency=4
tags=system.cpu_cluster.cpus0.dtb_walker_cache.tags
tgts_per_mshr=8
warmup_percentage=0
write_allocator=Null
write_buffers=16
writeback_clean=true
cpu_side=system.cpu_cluster.cpus0.dtb.walker.port
mem_side=system.cpu_cluster.toL2Bus.slave[3]

[system.cpu_cluster.cpus0.dtb_walker_cache.replacement_policy]
type=LRURP
eventq_index=0

[system.cpu_cluster.cpus0.dtb_walker_cache.tags]
type=BaseSetAssoc
children=indexing_policy
assoc=8
block_size=64
clk_domain=system.cpu_cluster.clk_domain
default_p_state=UNDEFINED
entry_size=64
eventq_index=0
indexing_policy=system.cpu_cluster.cpus0.dtb_walker_cache.tags.indexing_policy
p_state_clk_gate_bins=20
p_state_clk_gate_max=1000000000000
p_state_clk_gate_min=1000
power_model=
replacement_policy=system.cpu_cluster.cpus0.dtb_walker_cache.replacement_policy
sequential_access=false
size=1024
system=system
tag_latency=4
warmup_percentage=0

[system.cpu_cluster.cpus0.dtb_walker_cache.tags.indexing_policy]
type=SetAssociative
assoc=8
entry_size=64
eventq_index=0
size=1024

[system.cpu_cluster.cpus0.executeFuncUnits]
type=MinorFUPool
children=funcUnits0 funcUnits1 funcUnits2 funcUnits3 funcUnits4 funcUnits5 funcUnits6
eventq_index=0
funcUnits=system.cpu_cluster.cpus0.executeFuncUnits.funcUnits0 system.cpu_cluster.cpus0.executeFuncUnits.funcUnits1 system.cpu_cluster.cpus0.executeFuncUnits.funcUnits2 system.cpu_cluster.cpus0.executeFuncUnits.funcUnits3 system.cpu_cluster.cpus0.executeFuncUnits.funcUnits4 system.cpu_cluster.cpus0.executeFuncUnits.funcUnits5 system.cpu_cluster.cpus0.executeFuncUnits.funcUnits6

[system.cpu_cluster.cpus0.executeFuncUnits.funcUnits0]
type=MinorFU
children=opClasses timings
cantForwardFromFUIndices=
eventq_index=0
issueLat=1
opClasses=system.cpu_cluster.cpus0.executeFuncUnits.funcUnits0.opClasses
opLat=3
timings=system.cpu_cluster.cpus0.executeFuncUnits.funcUnits0.timings

[system.cpu_cluster.cpus0.executeFuncUnits.funcUnits0.opClasses]
type=MinorOpClassSet
children=opClasses
eventq_index=0
opClasses=system.cpu_cluster.cpus0.executeFuncUnits.funcUnits0.opClasses.opClasses

[system.cpu_cluster.cpus0.executeFuncUnits.funcUnits0.opClasses.opClasses]
type=MinorOpClass
eventq_index=0
opClass=IntAlu

[system.cpu_cluster.cpus0.executeFuncUnits.funcUnits0.timings]
type=MinorFUTiming
children=opClasses
description=Int
eventq_index=0
extraAssumedLat=0
extraCommitLat=0
extraCommitLatExpr=Null
mask=0
match=0
opClasses=system.cpu_cluster.cpus0.executeFuncUnits.funcUnits0.timings.opClasses
srcRegsRelativeLats=2
suppress=false

[system.cpu_cluster.cpus0.executeFuncUnits.funcUnits0.timings.opClasses]
type=MinorOpClassSet
eventq_index=0
opClasses=

[system.cpu_cluster.cpus0.executeFuncUnits.funcUnits1]
type=MinorFU
children=opClasses timings
cantForwardFromFUIndices=
eventq_index=0
issueLat=1
opClasses=system.cpu_cluster.cpus0.executeFuncUnits.funcUnits1.opClasses
opLat=3
timings=system.cpu_cluster.cpus0.executeFuncUnits.funcUnits1.timings

[system.cpu_cluster.cpus0.executeFuncUnits.funcUnits1.opClasses]
type=MinorOpClassSet
children=opClasses
eventq_index=0
opClasses=system.cpu_cluster.cpus0.executeFuncUnits.funcUnits1.opClasses.opClasses

[system.cpu_cluster.cpus0.executeFuncUnits.funcUnits1.opClasses.opClasses]
type=MinorOpClass
eventq_index=0
opClass=IntAlu

[system.cpu_cluster.cpus0.executeFuncUnits.funcUnits1.timings]
type=MinorFUTiming
children=opClasses
description=Int
eventq_index=0
extraAssumedLat=0
extraCommitLat=0
extraCommitLatExpr=Null
mask=0
match=0
opClasses=system.cpu_cluster.cpus0.executeFuncUnits.funcUnits1.timings.opClasses
srcRegsRelativeLats=2
suppress=false

[system.cpu_cluster.cpus0.executeFuncUnits.funcUnits1.timings.opClasses]
type=MinorOpClassSet
eventq_index=0
opClasses=

[system.cpu_cluster.cpus0.executeFuncUnits.funcUnits2]
type=MinorFU
children=opClasses timings
cantForwardFromFUIndices=
eventq_index=0
issueLat=1
opClasses=system.cpu_cluster.cpus0.executeFuncUnits.funcUnits2.opClasses
opLat=3
timings=system.cpu_cluster.cpus0.executeFuncUnits.funcUnits2.timings

[system.cpu_cluster.cpus0.executeFuncUnits.funcUnits2.opClasses]
type=MinorOpClassSet
children=opClasses
eventq_index=0
opClasses=system.cpu_cluster.cpus0.executeFuncUnits.funcUnits2.opClasses.opClasses

[system.cpu_cluster.cpus0.executeFuncUnits.funcUnits2.opClasses.opClasses]
type=MinorOpClass
eventq_index=0
opClass=IntMult

[system.cpu_cluster.cpus0.executeFuncUnits.funcUnits2.timings]
type=MinorFUTiming
children=opClasses
description=Mul
eventq_index=0
extraAssumedLat=0
extraCommitLat=0
extraCommitLatExpr=Null
mask=0
match=0
opClasses=system.cpu_cluster.cpus0.executeFuncUnits.funcUnits2.timings.opClasses
srcRegsRelativeLats=0
suppress=false

[system.cpu_cluster.cpus0.executeFuncUnits.funcUnits2.timings.opClasses]
type=MinorOpClassSet
eventq_index=0
opClasses=

[system.cpu_cluster.cpus0.executeFuncUnits.funcUnits3]
type=MinorFU
children=opClasses
cantForwardFromFUIndices=
eventq_index=0
issueLat=9
opClasses=system.cpu_cluster.cpus0.executeFuncUnits.funcUnits3.opClasses
opLat=9
timings=

[system.cpu_cluster.cpus0.executeFuncUnits.funcUnits3.opClasses]
type=MinorOpClassSet
children=opClasses
eventq_index=0
opClasses=system.cpu_cluster.cpus0.executeFuncUnits.funcUnits3.opClasses.opClasses

[system.cpu_cluster.cpus0.executeFuncUnits.funcUnits3.opClasses.opClasses]
type=MinorOpClass
eventq_index=0
opClass=IntDiv

[system.cpu_cluster.cpus0.executeFuncUnits.funcUnits4]
type=MinorFU
children=opClasses timings
cantForwardFromFUIndices=
eventq_index=0
issueLat=1
opClasses=system.cpu_cluster.cpus0.executeFuncUnits.funcUnits4.opClasses
opLat=6
timings=system.cpu_cluster.cpus0.executeFuncUnits.funcUnits4.timings

[system.cpu_cluster.cpus0.executeFuncUnits.funcUnits4.opClasses]
type=MinorOpClassSet
children=opClasses00 opClasses01 opClasses02 opClasses03 opClasses04 opClasses05 opClasses06 opClasses07 opClasses08 opClasses09 opClasses10 opClasses11 opClasses12 opClasses13 opClasses14 opClasses15 opClasses16 opClasses17 opClasses18 opClasses19 opClasses20 opClasses21 opClasses22 opClasses23 opClasses24 opClasses25 opClasses26 opClasses27 opClasses28 opClasses29 opClasses30 opClasses31 opClasses32 opClasses33 opClasses34 opClasses35
eventq_index=0
opClasses=system.cpu_cluster.cpus0.executeFuncUnits.funcUnits4.opClasses.opClasses00 system.cpu_cluster.cpus0.executeFuncUnits.funcUnits4.opClasses.opClasses01 system.cpu_cluster.cpus0.executeFuncUnits.funcUnits4.opClasses.opClasses02 system.cpu_cluster.cpus0.executeFuncUnits.funcUnits4.opClasses.opClasses03 system.cpu_cluster.cpus0.executeFuncUnits.funcUnits4.opClasses.opClasses04 system.cpu_cluster.cpus0.executeFuncUnits.funcUnits4.opClasses.opClasses05 system.cpu_cluster.cpus0.executeFuncUnits.funcUnits4.opClasses.opClasses06 system.cpu_cluster.cpus0.executeFuncUnits.funcUnits4.opClasses.opClasses07 system.cpu_cluster.cpus0.executeFuncUnits.funcUnits4.opClasses.opClasses08 system.cpu_cluster.cpus0.executeFuncUnits.funcUnits4.opClasses.opClasses09 system.cpu_cluster.cpus0.executeFuncUnits.funcUnits4.opClasses.opClasses10 system.cpu_cluster.cpus0.executeFuncUnits.funcUnits4.opClasses.opClasses11 system.cpu_cluster.cpus0.executeFuncUnits.funcUnits4.opClasses.opClasses12 system.cpu_cluster.cpus0.executeFuncUnits.funcUnits4.opClasses.opClasses13 system.cpu_cluster.cpus0.executeFuncUnits.funcUnits4.opClasses.opClasses14 system.cpu_cluster.cpus0.executeFuncUnits.funcUnits4.opClasses.opClasses15 system.cpu_cluster.cpus0.executeFuncUnits.funcUnits4.opClasses.opClasses16 system.cpu_cluster.cpus0.executeFuncUnits.funcUnits4.opClasses.opClasses17 system.cpu_cluster.cpus0.executeFuncUnits.funcUnits4.opClasses.opClasses18 system.cpu_cluster.cpus0.executeFuncUnits.funcUnits4.opClasses.opClasses19 system.cpu_cluster.cpus0.executeFuncUnits.funcUnits4.opClasses.opClasses20 system.cpu_cluster.cpus0.executeFuncUnits.funcUnits4.opClasses.opClasses21 system.cpu_cluster.cpus0.executeFuncUnits.funcUnits4.opClasses.opClasses22 system.cpu_cluster.cpus0.executeFuncUnits.funcUnits4.opClasses.opClasses23 system.cpu_cluster.cpus0.executeFuncUnits.funcUnits4.opClasses.opClasses24 system.cpu_cluster.cpus0.executeFuncUnits.funcUnits4.opClasses.opClasses25 system.cpu_cluster.cpus0.executeFuncUnits.funcUnits4.opClasses.opClasses26 system.cpu_cluster.cpus0.executeFuncUnits.funcUnits4.opClasses.opClasses27 system.cpu_cluster.cpus0.executeFuncUnits.funcUnits4.opClasses.opClasses28 system.cpu_cluster.cpus0.executeFuncUnits.funcUnits4.opClasses.opClasses29 system.cpu_cluster.cpus0.executeFuncUnits.funcUnits4.opClasses.opClasses30 system.cpu_cluster.cpus0.executeFuncUnits.funcUnits4.opClasses.opClasses31 system.cpu_cluster.cpus0.executeFuncUnits.funcUnits4.opClasses.opClasses32 system.cpu_cluster.cpus0.executeFuncUnits.funcUnits4.opClasses.opClasses33 system.cpu_cluster.cpus0.executeFuncUnits.funcUnits4.opClasses.opClasses34 system.cpu_cluster.cpus0.executeFuncUnits.funcUnits4.opClasses.opClasses35

[system.cpu_cluster.cpus0.executeFuncUnits.funcUnits4.opClasses.opClasses00]
type=MinorOpClass
eventq_index=0
opClass=FloatAdd

[system.cpu_cluster.cpus0.executeFuncUnits.funcUnits4.opClasses.opClasses01]
type=MinorOpClass
eventq_index=0
opClass=FloatCmp

[system.cpu_cluster.cpus0.executeFuncUnits.funcUnits4.opClasses.opClasses02]
type=MinorOpClass
eventq_index=0
opClass=FloatCvt

[system.cpu_cluster.cpus0.executeFuncUnits.funcUnits4.opClasses.opClasses03]
type=MinorOpClass
eventq_index=0
opClass=FloatMisc

[system.cpu_cluster.cpus0.executeFuncUnits.funcUnits4.opClasses.opClasses04]
type=MinorOpClass
eventq_index=0
opClass=FloatMult

[system.cpu_cluster.cpus0.executeFuncUnits.funcUnits4.opClasses.opClasses05]
type=MinorOpClass
eventq_index=0
opClass=FloatMultAcc

[system.cpu_cluster.cpus0.executeFuncUnits.funcUnits4.opClasses.opClasses06]
type=MinorOpClass
eventq_index=0
opClass=FloatDiv

[system.cpu_cluster.cpus0.executeFuncUnits.funcUnits4.opClasses.opClasses07]
type=MinorOpClass
eventq_index=0
opClass=FloatSqrt

[system.cpu_cluster.cpus0.executeFuncUnits.funcUnits4.opClasses.opClasses08]
type=MinorOpClass
eventq_index=0
opClass=SimdAdd

[system.cpu_cluster.cpus0.executeFuncUnits.funcUnits4.opClasses.opClasses09]
type=MinorOpClass
eventq_index=0
opClass=SimdAddAcc

[system.cpu_cluster.cpus0.executeFuncUnits.funcUnits4.opClasses.opClasses10]
type=MinorOpClass
eventq_index=0
opClass=SimdAlu

[system.cpu_cluster.cpus0.executeFuncUnits.funcUnits4.opClasses.opClasses11]
type=MinorOpClass
eventq_index=0
opClass=SimdCmp

[system.cpu_cluster.cpus0.executeFuncUnits.funcUnits4.opClasses.opClasses12]
type=MinorOpClass
eventq_index=0
opClass=SimdCvt

[system.cpu_cluster.cpus0.executeFuncUnits.funcUnits4.opClasses.opClasses13]
type=MinorOpClass
eventq_index=0
opClass=SimdMisc

[system.cpu_cluster.cpus0.executeFuncUnits.funcUnits4.opClasses.opClasses14]
type=MinorOpClass
eventq_index=0
opClass=SimdMult

[system.cpu_cluster.cpus0.executeFuncUnits.funcUnits4.opClasses.opClasses15]
type=MinorOpClass
eventq_index=0
opClass=SimdMultAcc

[system.cpu_cluster.cpus0.executeFuncUnits.funcUnits4.opClasses.opClasses16]
type=MinorOpClass
eventq_index=0
opClass=SimdShift

[system.cpu_cluster.cpus0.executeFuncUnits.funcUnits4.opClasses.opClasses17]
type=MinorOpClass
eventq_index=0
opClass=SimdShiftAcc

[system.cpu_cluster.cpus0.executeFuncUnits.funcUnits4.opClasses.opClasses18]
type=MinorOpClass
eventq_index=0
opClass=SimdSqrt

[system.cpu_cluster.cpus0.executeFuncUnits.funcUnits4.opClasses.opClasses19]
type=MinorOpClass
eventq_index=0
opClass=SimdFloatAdd

[system.cpu_cluster.cpus0.executeFuncUnits.funcUnits4.opClasses.opClasses20]
type=MinorOpClass
eventq_index=0
opClass=SimdFloatAlu

[system.cpu_cluster.cpus0.executeFuncUnits.funcUnits4.opClasses.opClasses21]
type=MinorOpClass
eventq_index=0
opClass=SimdFloatCmp

[system.cpu_cluster.cpus0.executeFuncUnits.funcUnits4.opClasses.opClasses22]
type=MinorOpClass
eventq_index=0
opClass=SimdFloatCvt

[system.cpu_cluster.cpus0.executeFuncUnits.funcUnits4.opClasses.opClasses23]
type=MinorOpClass
eventq_index=0
opClass=SimdFloatDiv

[system.cpu_cluster.cpus0.executeFuncUnits.funcUnits4.opClasses.opClasses24]
type=MinorOpClass
eventq_index=0
opClass=SimdFloatMisc

[system.cpu_cluster.cpus0.executeFuncUnits.funcUnits4.opClasses.opClasses25]
type=MinorOpClass
eventq_index=0
opClass=SimdFloatMult

[system.cpu_cluster.cpus0.executeFuncUnits.funcUnits4.opClasses.opClasses26]
type=MinorOpClass
eventq_index=0
opClass=SimdFloatMultAcc

[system.cpu_cluster.cpus0.executeFuncUnits.funcUnits4.opClasses.opClasses27]
type=MinorOpClass
eventq_index=0
opClass=SimdFloatSqrt

[system.cpu_cluster.cpus0.executeFuncUnits.funcUnits4.opClasses.opClasses28]
type=MinorOpClass
eventq_index=0
opClass=SimdAes

[system.cpu_cluster.cpus0.executeFuncUnits.funcUnits4.opClasses.opClasses29]
type=MinorOpClass
eventq_index=0
opClass=SimdAesMix

[system.cpu_cluster.cpus0.executeFuncUnits.funcUnits4.opClasses.opClasses30]
type=MinorOpClass
eventq_index=0
opClass=SimdSha1Hash

[system.cpu_cluster.cpus0.executeFuncUnits.funcUnits4.opClasses.opClasses31]
type=MinorOpClass
eventq_index=0
opClass=SimdSha1Hash2

[system.cpu_cluster.cpus0.executeFuncUnits.funcUnits4.opClasses.opClasses32]
type=MinorOpClass
eventq_index=0
opClass=SimdSha256Hash

[system.cpu_cluster.cpus0.executeFuncUnits.funcUnits4.opClasses.opClasses33]
type=MinorOpClass
eventq_index=0
opClass=SimdSha256Hash2

[system.cpu_cluster.cpus0.executeFuncUnits.funcUnits4.opClasses.opClasses34]
type=MinorOpClass
eventq_index=0
opClass=SimdShaSigma2

[system.cpu_cluster.cpus0.executeFuncUnits.funcUnits4.opClasses.opClasses35]
type=MinorOpClass
eventq_index=0
opClass=SimdShaSigma3

[system.cpu_cluster.cpus0.executeFuncUnits.funcUnits4.timings]
type=MinorFUTiming
children=opClasses
description=FloatSimd
eventq_index=0
extraAssumedLat=0
extraCommitLat=0
extraCommitLatExpr=Null
mask=0
match=0
opClasses=system.cpu_cluster.cpus0.executeFuncUnits.funcUnits4.timings.opClasses
srcRegsRelativeLats=2
suppress=false

[system.cpu_cluster.cpus0.executeFuncUnits.funcUnits4.timings.opClasses]
type=MinorOpClassSet
eventq_index=0
opClasses=

[system.cpu_cluster.cpus0.executeFuncUnits.funcUnits5]
type=MinorFU
children=opClasses timings
cantForwardFromFUIndices=
eventq_index=0
issueLat=1
opClasses=system.cpu_cluster.cpus0.executeFuncUnits.funcUnits5.opClasses
opLat=1
timings=system.cpu_cluster.cpus0.executeFuncUnits.funcUnits5.timings

[system.cpu_cluster.cpus0.executeFuncUnits.funcUnits5.opClasses]
type=MinorOpClassSet
children=opClasses0 opClasses1 opClasses2 opClasses3
eventq_index=0
opClasses=system.cpu_cluster.cpus0.executeFuncUnits.funcUnits5.opClasses.opClasses0 system.cpu_cluster.cpus0.executeFuncUnits.funcUnits5.opClasses.opClasses1 system.cpu_cluster.cpus0.executeFuncUnits.funcUnits5.opClasses.opClasses2 system.cpu_cluster.cpus0.executeFuncUnits.funcUnits5.opClasses.opClasses3

[system.cpu_cluster.cpus0.executeFuncUnits.funcUnits5.opClasses.opClasses0]
type=MinorOpClass
eventq_index=0
opClass=MemRead

[system.cpu_cluster.cpus0.executeFuncUnits.funcUnits5.opClasses.opClasses1]
type=MinorOpClass
eventq_index=0
opClass=MemWrite

[system.cpu_cluster.cpus0.executeFuncUnits.funcUnits5.opClasses.opClasses2]
type=MinorOpClass
eventq_index=0
opClass=FloatMemRead

[system.cpu_cluster.cpus0.executeFuncUnits.funcUnits5.opClasses.opClasses3]
type=MinorOpClass
eventq_index=0
opClass=FloatMemWrite

[system.cpu_cluster.cpus0.executeFuncUnits.funcUnits5.timings]
type=MinorFUTiming
children=opClasses
description=Mem
eventq_index=0
extraAssumedLat=2
extraCommitLat=0
extraCommitLatExpr=Null
mask=0
match=0
opClasses=system.cpu_cluster.cpus0.executeFuncUnits.funcUnits5.timings.opClasses
srcRegsRelativeLats=1
suppress=false

[system.cpu_cluster.cpus0.executeFuncUnits.funcUnits5.timings.opClasses]
type=MinorOpClassSet
eventq_index=0
opClasses=

[system.cpu_cluster.cpus0.executeFuncUnits.funcUnits6]
type=MinorFU
children=opClasses
cantForwardFromFUIndices=
eventq_index=0
issueLat=1
opClasses=system.cpu_cluster.cpus0.executeFuncUnits.funcUnits6.opClasses
opLat=1
timings=

[system.cpu_cluster.cpus0.executeFuncUnits.funcUnits6.opClasses]
type=MinorOpClassSet
children=opClasses0 opClasses1
eventq_index=0
opClasses=system.cpu_cluster.cpus0.executeFuncUnits.funcUnits6.opClasses.opClasses0 system.cpu_cluster.cpus0.executeFuncUnits.funcUnits6.opClasses.opClasses1

[system.cpu_cluster.cpus0.executeFuncUnits.funcUnits6.opClasses.opClasses0]
type=MinorOpClass
eventq_index=0
opClass=IprAccess

[system.cpu_cluster.cpus0.executeFuncUnits.funcUnits6.opClasses.opClasses1]
type=MinorOpClass
eventq_index=0
opClass=InstPrefetch

[system.cpu_cluster.cpus0.icache]
type=Cache
children=replacement_policy tags
addr_ranges=0:18446744073709551615:0:0:0:0
assoc=3
clk_domain=system.cpu_cluster.clk_domain
clusivity=mostly_incl
data_latency=1
default_p_state=UNDEFINED
demand_mshr_reserve=1
eventq_index=0
is_read_only=true
max_miss_count=0
mshrs=4
p_state_clk_gate_bins=20
p_state_clk_gate_max=1000000000000
p_state_clk_gate_min=1000
power_model=
prefetch_on_access=false
prefetcher=Null
replacement_policy=system.cpu_cluster.cpus0.icache.replacement_policy
response_latency=1
sequential_access=false
size=49152
system=system
tag_latency=1
tags=system.cpu_cluster.cpus0.icache.tags
tgts_per_mshr=8
warmup_percentage=0
write_allocator=Null
write_buffers=8
writeback_clean=true
cpu_side=system.cpu_cluster.cpus0.icache_port
mem_side=system.cpu_cluster.toL2Bus.slave[0]

[system.cpu_cluster.cpus0.icache.replacement_policy]
type=LRURP
eventq_index=0

[system.cpu_cluster.cpus0.icache.tags]
type=BaseSetAssoc
children=indexing_policy
assoc=3
block_size=64
clk_domain=system.cpu_cluster.clk_domain
default_p_state=UNDEFINED
entry_size=64
eventq_index=0
indexing_policy=system.cpu_cluster.cpus0.icache.tags.indexing_policy
p_state_clk_gate_bins=20
p_state_clk_gate_max=1000000000000
p_state_clk_gate_min=1000
power_model=
replacement_policy=system.cpu_cluster.cpus0.icache.replacement_policy
sequential_access=false
size=49152
system=system
tag_latency=1
warmup_percentage=0

[system.cpu_cluster.cpus0.icache.tags.indexing_policy]
type=SetAssociative
assoc=3
entry_size=64
eventq_index=0
size=49152

[system.cpu_cluster.cpus0.interrupts]
type=ArmInterrupts
eventq_index=0

[system.cpu_cluster.cpus0.isa]
type=ArmISA
decoderFlavour=Generic
eventq_index=0
fpsid=1090793632
id_aa64afr0_el1=0
id_aa64afr1_el1=0
id_aa64dfr0_el1=1052678
id_aa64dfr1_el1=0
id_aa64isar0_el1=0
id_aa64isar1_el1=0
id_aa64mmfr0_el1=15728642
id_aa64mmfr1_el1=0
id_aa64mmfr2_el1=0
id_isar0=34607377
id_isar1=34677009
id_isar2=555950401
id_isar3=17899825
id_isar4=268501314
id_isar5=0
id_mmfr0=270536963
id_mmfr1=0
id_mmfr2=19070976
id_mmfr3=34611729
impdef_nop=false
midr=1091551472
pmu=Null
system=system
vecRegRenameMode=Full

[system.cpu_cluster.cpus0.istage2_mmu]
type=ArmStage2MMU
children=stage2_tlb
eventq_index=0
stage2_tlb=system.cpu_cluster.cpus0.istage2_mmu.stage2_tlb
sys=system
tlb=system.cpu_cluster.cpus0.itb

[system.cpu_cluster.cpus0.istage2_mmu.stage2_tlb]
type=ArmTLB
children=walker
eventq_index=0
is_stage2=true
size=32
sys=system
walker=system.cpu_cluster.cpus0.istage2_mmu.stage2_tlb.walker

[system.cpu_cluster.cpus0.istage2_mmu.stage2_tlb.walker]
type=ArmTableWalker
clk_domain=system.cpu_cluster.clk_domain
default_p_state=UNDEFINED
eventq_index=0
is_stage2=true
num_squash_per_cycle=2
p_state_clk_gate_bins=20
p_state_clk_gate_max=1000000000000
p_state_clk_gate_min=1000
power_model=
sys=system

[system.cpu_cluster.cpus0.itb]
type=ArmTLB
children=walker
eventq_index=0
is_stage2=false
size=64
sys=system
walker=system.cpu_cluster.cpus0.itb.walker

[system.cpu_cluster.cpus0.itb.walker]
type=ArmTableWalker
clk_domain=system.cpu_cluster.clk_domain
default_p_state=UNDEFINED
eventq_index=0
is_stage2=false
num_squash_per_cycle=2
p_state_clk_gate_bins=20
p_state_clk_gate_max=1000000000000
p_state_clk_gate_min=1000
power_model=
sys=system
port=system.cpu_cluster.cpus0.itb_walker_cache.cpu_side

[system.cpu_cluster.cpus0.itb_walker_cache]
type=Cache
children=replacement_policy tags
addr_ranges=0:18446744073709551615:0:0:0:0
assoc=8
clk_domain=system.cpu_cluster.clk_domain
clusivity=mostly_incl
data_latency=4
default_p_state=UNDEFINED
demand_mshr_reserve=1
eventq_index=0
is_read_only=true
max_miss_count=0
mshrs=6
p_state_clk_gate_bins=20
p_state_clk_gate_max=1000000000000
p_state_clk_gate_min=1000
power_model=
prefetch_on_access=false
prefetcher=Null
replacement_policy=system.cpu_cluster.cpus0.itb_walker_cache.replacement_policy
response_latency=4
sequential_access=false
size=1024
system=system
tag_latency=4
tags=system.cpu_cluster.cpus0.itb_walker_cache.tags
tgts_per_mshr=8
warmup_percentage=0
write_allocator=Null
write_buffers=16
writeback_clean=true
cpu_side=system.cpu_cluster.cpus0.itb.walker.port
mem_side=system.cpu_cluster.toL2Bus.slave[2]

[system.cpu_cluster.cpus0.itb_walker_cache.replacement_policy]
type=LRURP
eventq_index=0

[system.cpu_cluster.cpus0.itb_walker_cache.tags]
type=BaseSetAssoc
children=indexing_policy
assoc=8
block_size=64
clk_domain=system.cpu_cluster.clk_domain
default_p_state=UNDEFINED
entry_size=64
eventq_index=0
indexing_policy=system.cpu_cluster.cpus0.itb_walker_cache.tags.indexing_policy
p_state_clk_gate_bins=20
p_state_clk_gate_max=1000000000000
p_state_clk_gate_min=1000
power_model=
replacement_policy=system.cpu_cluster.cpus0.itb_walker_cache.replacement_policy
sequential_access=false
size=1024
system=system
tag_latency=4
warmup_percentage=0

[system.cpu_cluster.cpus0.itb_walker_cache.tags.indexing_policy]